check for this content!

new line... and more!!


this file has changed on the DEV and thus should be updated